         301

 Li   12.128730863332748        99.941527843475342        42.491295933723450        6.9400000000000004     
 Li   98.452597856521606        36.287164688110352        32.191771268844604        6.9400000000000004     
 Li   31.813207268714905        46.481686830520630        1.2401052750647068        6.9400000000000004     
 Li   58.414125442504883        1.0464555583894253        32.544144988059998        6.9400000000000004     
 Li   83.141815662384033        97.073525190353394        19.516254961490631        6.9400000000000004     
 Li   63.280713558197021        53.111046552658081        36.838641762733459        6.9400000000000004     
 Li   24.510501325130463        50.247251987457275        31.794756650924683        6.9400000000000004     
 Li   56.531804800033569        93.098002672195435        4.0679767727851868        6.9400000000000004     
 Li   89.453935623168945        36.611628532409668        39.261415600776672        6.9400000000000004     
 Li   79.236596822738647        63.490146398544312        1.4646918512880802        6.9400000000000004     
 Li   83.092671632766724        79.432147741317749       0.73094055987894535        6.9400000000000004     
 Li   74.110573530197144        95.608723163604736        21.776895225048065        6.9400000000000004     
 Li   97.244399785995483        92.017757892608643        19.908790290355682        6.9400000000000004     
 Li   76.339483261108398        84.591764211654663        2.0661775022745132        6.9400000000000004     
 Li   53.484612703323364        86.735236644744873        23.327645659446716        6.9400000000000004     
 Li   77.066695690155029        20.737382769584656        43.158590793609619        6.9400000000000004     
 Li   24.942123889923096        10.226422548294067        33.536732196807861        6.9400000000000004     
 Li   85.663372278213501        86.432093381881714        16.672454774379730        6.9400000000000004     
 Li   23.134900629520416        86.397093534469604        21.023364365100861        6.9400000000000004     
 Li   18.398773670196533        32.701772451400757        39.360895752906799        6.9400000000000004     
 Li   48.255899548530579        89.719808101654053        18.402391672134399        6.9400000000000004     
 Li   90.506845712661743        72.065395116806030        7.9458326101303101        6.9400000000000004     
 Li   93.928515911102295        20.119892060756683        26.300069689750671        6.9400000000000004     
 Li   49.489438533782959        8.9337237179279327        40.251529216766357        6.9400000000000004     
 Li   36.040791869163513        48.509427905082703        29.454356431961060        6.9400000000000004     
 Li   25.304651260375977        89.664912223815918        2.8409836813807487        6.9400000000000004     
 Li   86.432111263275146        5.0690479576587677        28.610086441040039        6.9400000000000004     
 Li   66.036635637283325        10.567784309387207        35.670068860054016        6.9400000000000004     
 Li   78.319877386093140        6.9520570337772369        48.566094040870667        6.9400000000000004     
 Li   7.6576225459575653        3.3783793449401855        6.0357555747032166        6.9400000000000004     
 Li   25.284859538078308        10.685615241527557        6.8787187337875366        6.9400000000000004     
 Li   55.068004131317139        57.501792907714844        43.386641144752502        6.9400000000000004     
 Li   16.501215100288391        14.686119556427002        20.313937962055206        6.9400000000000004     
 Li   10.022265464067459        27.977022528648376        27.811095118522644        6.9400000000000004     
 Li   16.291451454162598        20.094645023345947        43.963101506233215        6.9400000000000004     
 Li   53.259867429733276        52.319407463073730        6.6084906458854675        6.9400000000000004     
 Li   49.987137317657471        47.796902060508728        33.553132414817810        6.9400000000000004     
 Li   24.860477447509766        43.826377391815186        37.775477766990662        6.9400000000000004     
 Li   95.759117603302002        11.519017070531845        36.785522103309631        6.9400000000000004     
 Li   90.993702411651611        64.819961786270142        33.506241440773010        6.9400000000000004     
 Li   51.353007555007935        16.377507150173187        27.378419041633606        6.9400000000000004     
 Li   35.298705101013184        9.2748478055000305        40.680915117263794        6.9400000000000004     
 Li   13.168238103389740        75.473231077194214        33.987215161323547        6.9400000000000004     
 Li   96.983695030212402        78.668743371963501        28.644374012947083        6.9400000000000004     
 Li   47.120228409767151        54.745078086853027        3.5927016288042068        6.9400000000000004     
 Li   58.383774757385254        61.358052492141724        1.4744142070412636        6.9400000000000004     
 Li   17.917022109031677        12.644149363040924        39.662155508995056        6.9400000000000004     
 Li   31.041392683982849        19.285047054290771        6.6652663052082062        6.9400000000000004     
 Li   90.346544981002808        13.605850934982300        24.247449636459351        6.9400000000000004     
 Li   90.027916431427002        6.2018778175115585        30.645975470542908        6.9400000000000004     
 Li   72.841960191726685        73.349392414093018        31.327152252197266        6.9400000000000004     
 Li   74.087315797805786        58.674210309982300        43.059489130973816        6.9400000000000004     
 Li   44.130435585975647        94.266474246978760        48.800119757652283        6.9400000000000004     
 Li   66.745394468307495        65.124708414077759        48.275992274284363        6.9400000000000004     
 Li   55.876636505126953        80.515289306640625        8.3249062299728394        6.9400000000000004     
 Li   48.390343785285950        42.807224392890930        2.4659337475895882        6.9400000000000004     
 Li   64.600288867950439        65.531599521636963        28.512710332870483        6.9400000000000004     
 Li   9.9443003535270691        70.944297313690186        1.3972257263958454        6.9400000000000004     
 Li   95.335072278976440        23.682598769664764        1.9655194133520126        6.9400000000000004     
 Li   61.084276437759399        60.916954278945923        27.320852875709534        6.9400000000000004     
 Li   8.3763241767883301        30.935040116310120        7.3891349136829376        6.9400000000000004     
 Li   93.395668268203735        79.737478494644165        20.134335756301880        6.9400000000000004     
 Li   8.5830405354499817        20.657120645046234        43.930646777153015        6.9400000000000004     
 Li   77.954119443893433        62.104773521423340        7.2502195835113525        6.9400000000000004     
 Li   61.556118726730347        17.200109362602234        19.497910141944885        6.9400000000000004     
 Li   53.938621282577515        95.261710882186890        1.2137187644839287        6.9400000000000004     
 Li   3.8170408457517624        82.263463735580444        27.712154388427734        6.9400000000000004     
 Li  0.13510681455954909        69.854497909545898        48.301085829734802        6.9400000000000004     
 Li   56.845134496688843        67.952090501785278        23.283630609512329        6.9400000000000004     
 Li   12.447800487279892        20.980434119701385        41.615632176399231        6.9400000000000004     
 Li   1.3852572999894619        31.572654843330383        37.575975060462952        6.9400000000000004     
 Li   82.263088226318359        16.967834532260895        34.192404150962830        6.9400000000000004     
 Li   41.872897744178772        82.155394554138184        30.670142173767090        6.9400000000000004     
 Li   11.689434945583344        1.7851758748292923        28.837203979492188        6.9400000000000004     
 Li   8.7887465953826904        35.550680756568909        2.0368110388517380        6.9400000000000004     
 Li   36.930462718009949        98.006677627563477        40.157946944236755        6.9400000000000004     
 Li   44.748121500015259        9.4009563326835632        6.2848582863807678        6.9400000000000004     
 Li   2.3122871294617653        44.618624448776245        12.241419404745102        6.9400000000000004     
 Li   61.722898483276367        88.999021053314209        45.646286010742188        6.9400000000000004     
 Li   71.121120452880859        95.209884643554688        2.4701884016394615        6.9400000000000004     
 Li   96.342498064041138        44.859123229980469        5.3936593234539032        6.9400000000000004     
 Li   57.775431871414185        68.316012620925903        1.9854506477713585        6.9400000000000004     
 Li   19.811825454235077        83.555275201797485        36.856371164321899        6.9400000000000004     
 Li   86.102497577667236        85.917186737060547        27.303293347358704        6.9400000000000004     
 Li   61.330789327621460        5.8543674647808075        38.494199514389038        6.9400000000000004     
 Li   41.278421878814697        90.191936492919922        28.592735528945923        6.9400000000000004     
 Li   90.753638744354248        60.916024446487427        26.446655392646790        6.9400000000000004     
 Li   36.663317680358887        82.195866107940674        1.8452649936079979        6.9400000000000004     
 Li   90.363550186157227        14.811287820339203        11.311104148626328        6.9400000000000004     
 Li   74.232441186904907        50.006157159805298        46.112152934074402        6.9400000000000004     
 Li   8.5952289402484894        55.988276004791260        20.447839796543121        6.9400000000000004     
 Li   80.087590217590332        50.442725419998169        30.327117443084717        6.9400000000000004     
 Li   40.410152077674866        87.657666206359863        19.310759007930756        6.9400000000000004     
 Li   72.649639844894409        95.091956853866577        12.861467897891998        6.9400000000000004     
 Li   9.5311187207698822        39.484474062919617        2.6958888396620750        6.9400000000000004     
 Li   68.186420202255249        77.113109827041626        9.1443032026290894        6.9400000000000004     
 Li   54.464131593704224        80.803644657135010        29.026141762733459        6.9400000000000004     
 Li   13.853268325328827        61.869990825653076        23.657691478729248        6.9400000000000004     
 Li   95.899730920791626        47.010955214500427        13.398216664791107        6.9400000000000004     
 Li   79.669326543807983        30.100274085998535        28.770679235458374        6.9400000000000004     
 Li   58.782041072845459        66.042172908782959        34.081274271011353        6.9400000000000004     
 Li   64.236390590667725        99.977928400039673        46.872094273567200        6.9400000000000004     
 Li   53.139394521713257        42.867490649223328        46.141421794891357        6.9400000000000004     
 Li   23.646426200866699        92.321640253067017        34.552675485610962        6.9400000000000004     
 Li   23.304685950279236        53.243941068649292        46.425661444664001        6.9400000000000004     
 Li   35.685372352600098        33.382758498191833        13.615377247333527        6.9400000000000004     
 Li   27.771693468093872        57.244282960891724        30.560767650604248        6.9400000000000004     
 Li   13.981388509273529        51.788598299026489        8.7234608829021454        6.9400000000000004     
 Li   75.965756177902222        53.491079807281494        36.337834596633911        6.9400000000000004     
 Li   83.855336904525757        91.486477851867676        40.111219882965088        6.9400000000000004     
 Li   27.646571397781372        33.433395624160767        42.508357763290405        6.9400000000000004     
 Li   66.133981943130493        10.462381690740585        25.149142742156982        6.9400000000000004     
 Li   72.510409355163574        38.127246499061584        5.6360516697168350        6.9400000000000004     
 Li   85.569655895233154        26.811373233795166        40.373703837394714        6.9400000000000004     
 Li   34.822663664817810        45.685985684394836        14.640212059020996        6.9400000000000004     
 Li   3.6003351211547852        53.323435783386230        29.375749826431274        6.9400000000000004     
 Li   3.2680425792932510        59.620779752731323        4.5289691537618637        6.9400000000000004     
 Li   18.263506889343262        2.8219945728778839        13.504709303379059        6.9400000000000004     
 Li   36.743131279945374        22.338712215423584        16.591058671474457        6.9400000000000004     
 Li   52.572762966156006        33.562746644020081        30.819174647331238        6.9400000000000004     
 Li   32.711362838745117        73.754113912582397        9.9965021014213562        6.9400000000000004     
 Li   90.943396091461182        12.588404119014740        35.036158561706543        6.9400000000000004     
 Li   88.803225755691528        59.064066410064697        47.230342030525208        6.9400000000000004     
 Li   57.901626825332642        54.718923568725586        12.490161508321762        6.9400000000000004     
 Li   83.460772037506104        60.292965173721313        44.304013252258301        6.9400000000000004     
 Li   72.091758251190186        28.518399596214294        38.199764490127563        6.9400000000000004     
 Li   2.2322455421090126        73.326641321182251        41.906112432479858        6.9400000000000004     
 Li   67.755883932113647        88.491803407669067        28.975024819374084        6.9400000000000004     
 Li   4.7509536147117615        78.203397989273071        44.835171103477478        6.9400000000000004     
 Li   89.985734224319458        89.863276481628418        46.320781111717224        6.9400000000000004     
 Li   53.765511512756348        24.096700549125671        32.767689228057861        6.9400000000000004     
 Li   72.785621881484985        18.681308627128601        37.596163153648376        6.9400000000000004     
 Li   95.191234350204468        90.320229530334473        27.483907341957092        6.9400000000000004     
 Li   64.439922571182251        9.8525099456310272        20.060496032238007        6.9400000000000004     
 Li   45.998516678810120        51.759558916091919        22.544944286346436        6.9400000000000004     
 Li   84.716093540191650        64.775615930557251        2.8146276250481606        6.9400000000000004     
 Li   18.233688175678253        79.710870981216431        9.8864085972309113        6.9400000000000004     
 Li   12.081109732389450        27.631768584251404        39.609158039093018        6.9400000000000004     
 Li   64.681386947631836        91.626995801925659        25.728636980056763        6.9400000000000004     
 Li   36.258909106254578        70.197308063507080        42.457947134971619        6.9400000000000004     
 Li   86.407667398452759        74.831211566925049        10.408315807580948        6.9400000000000004     
 Li   56.083178520202637        95.571261644363403        14.090216159820557        6.9400000000000004     
 Li   88.415342569351196        62.708544731140137        12.337370961904526        6.9400000000000004     
 Li   47.720703482627869        66.536229848861694        1.1107099242508411        6.9400000000000004     
 Li   95.660156011581421        8.2439996302127838        24.738240242004395        6.9400000000000004     
 Li   75.608479976654053        47.908103466033936        18.022288382053375        6.9400000000000004     
 Li   99.909538030624390        65.950673818588257        27.773532271385193        6.9400000000000004     
 Li   84.960311651229858        21.508544683456421        21.260379254817963        6.9400000000000004     
 Li   86.004412174224854        96.000283956527710        30.855187773704529        6.9400000000000004     
 Li   34.353339672088623        7.0789903402328491        24.533747136592865        6.9400000000000004     
 Li   43.959346413612366        45.684012770652771        4.7743916511535645        6.9400000000000004     
 Li   23.251698911190033        1.2477160431444645        42.848181724548340        6.9400000000000004     
 Li   62.368470430374146        77.976900339126587        42.710497975349426        6.9400000000000004     
 Li   67.201018333435059        71.534162759780884        7.3171786963939667        6.9400000000000004     
 Li   63.382893800735474        20.089504122734070        24.132710695266724        6.9400000000000004     
 Li   28.398486971855164        31.941923499107361        22.135770320892334        6.9400000000000004     
 Li   30.718362331390381        47.766885161399841        29.161429405212402        6.9400000000000004     
 Li   39.766794443130493        67.040783166885376        27.217480540275574        6.9400000000000004     
 Li   47.913664579391479        13.202686607837677        17.580530047416687        6.9400000000000004     
 Li   9.0463921427726746        40.116181969642639        36.346617341041565        6.9400000000000004     
 Li   80.080497264862061        54.026293754577637        12.886863946914673        6.9400000000000004     
 Li   11.329518258571625        13.119487464427948        5.3193837404251099        6.9400000000000004     
 Li   73.877537250518799        64.936029911041260        5.2931938320398331        6.9400000000000004     
 Li   30.138322710990906        9.3579545617103577        40.262264013290405        6.9400000000000004     
 Li   97.005224227905273        65.946060419082642        19.942165911197662        6.9400000000000004     
 Li   68.176871538162231        48.403689265251160        34.254762530326843        6.9400000000000004     
 Li   40.821617841720581        33.937016129493713        48.564007878303528        6.9400000000000004     
 Li   29.686945676803589        87.786096334457397        27.678692340850830        6.9400000000000004     
 Li   56.814962625503540        17.486029863357544        15.588450431823730        6.9400000000000004     
 Li   60.317045450210571        51.844131946563721        15.788798034191132        6.9400000000000004     
 Li   21.260833740234375        49.024462699890137        39.716291427612305        6.9400000000000004     
 Li   84.727966785430908        30.388373136520386        2.5110566988587379        6.9400000000000004     
 Li   10.341493040323257        89.608031511306763        18.871624767780304        6.9400000000000004     
 Li   80.823248624801636        77.303206920623779        27.989870309829712        6.9400000000000004     
 Li   12.070348858833313        92.496788501739502        14.976821839809418        6.9400000000000004     
 Li   55.529564619064331        71.670585870742798        3.1999189406633377        6.9400000000000004     
 Li   15.718208253383636        94.393414258956909        6.4153224229812622        6.9400000000000004     
 Li   78.923702239990234        87.648254632949829        23.951722681522369        6.9400000000000004     
 Li   34.763824939727783        20.449130237102509        33.301621675491333        6.9400000000000004     
 Li   98.112571239471436        72.914302349090576        37.134337425231934        6.9400000000000004     
 Li   22.344018518924713        84.875375032424927        33.512428402900696        6.9400000000000004     
 Li   47.357267141342163        79.378992319107056       0.27500856667757034        6.9400000000000004     
 Li   53.281712532043457        95.164889097213745        22.901870310306549        6.9400000000000004     
 Li   32.804712653160095        9.7448989748954773        30.395138263702393        6.9400000000000004     
 Li   99.530756473541260        68.992161750793457        15.552707016468048        6.9400000000000004     
 Li   76.174038648605347        18.628302216529846        3.1614068895578384        6.9400000000000004     
 Li   82.436913251876831        77.895200252532959        8.5399188101291656        6.9400000000000004     
 Li   57.632130384445190        55.199712514877319        31.477528810501099        6.9400000000000004     
 Li   5.5300816893577576        20.578116178512573        25.907710194587708        6.9400000000000004     
 Li   96.152478456497192        55.603826045989990        37.405323982238770        6.9400000000000004     
 Li   50.172609090805054        16.471436619758606        1.2401845306158066        6.9400000000000004     
 Li   99.223452806472778        4.0711887180805206        21.325299143791199        6.9400000000000004     
 Li   66.687101125717163        30.859100818634033        11.254791915416718        6.9400000000000004     
 Li  0.60836849734187126        37.658751010894775        35.884022712707520        6.9400000000000004     
 Li   97.443735599517822        57.461547851562500        5.9726651757955551        6.9400000000000004     
 Li   52.359068393707275        85.641491413116455        29.953771829605103        6.9400000000000004     
 Li   75.006860494613647        82.421422004699707        49.351137876510620        6.9400000000000004     
 Li   6.9196350872516632        31.854569911956787        13.096593320369720        6.9400000000000004     
 Li   35.873278975486755        48.062872886657715        6.5277874469757080        6.9400000000000004     
 Li   88.741570711135864        63.201099634170532        45.460903644561768        6.9400000000000004     
 Li   2.2454747930169106        6.9378636777400970        25.858128070831299        6.9400000000000004     
 Li   73.872864246368408        60.857945680618286        32.611322402954102        6.9400000000000004     
 Li   3.8445301353931427        39.417678117752075        40.173357725143433        6.9400000000000004     
 Li   84.342545270919800        72.800594568252563        49.413317441940308        6.9400000000000004     
 Li   9.3567967414855957        68.175053596496582        29.694440960884094        6.9400000000000004     
 Li   82.707518339157104       0.99129350855946541        36.423707008361816        6.9400000000000004     
 Li   98.795068264007568        17.351664602756500        6.0220196843147278        6.9400000000000004     
 Li   18.812462687492371        22.297677397727966        42.816576361656189        6.9400000000000004     
 Li   11.058121174573898        19.782337546348572        32.169669866561890        6.9400000000000004     
 Li   85.379850864410400        36.901584267616272        12.549644708633423        6.9400000000000004     
 Li   45.881852507591248        14.231395721435547        23.640227317810059        6.9400000000000004     
 Li   89.199000597000122        98.731535673141479        10.323273390531540        6.9400000000000004     
 Li   96.882611513137817        14.290377497673035        5.6181438267230988        6.9400000000000004     
 Li   67.081660032272339        32.763639092445374        22.431181371212006        6.9400000000000004     
 Li   23.582661151885986        83.443439006805420        48.654845356941223        6.9400000000000004     
 Li   50.093293190002441        4.1047703474760056        4.5829806476831436        6.9400000000000004     
 Li   45.271575450897217        20.534157752990723        2.7679406106472015        6.9400000000000004     
 Li   55.749076604843140        87.045532464981079        14.971566200256348        6.9400000000000004     
 Li   67.858588695526123        81.765300035476685        31.173440814018250        6.9400000000000004     
 Li   54.125571250915527        40.646153688430786        42.952933907508850        6.9400000000000004     
 Li   59.331578016281128        29.796266555786133        46.664059162139893        6.9400000000000004     
 Li   91.576862335205078        41.258943080902100        18.707104027271271        6.9400000000000004     
 Li   78.298497200012207        6.0334287583827972        5.5652379989624023        6.9400000000000004     
 Li   20.646151900291443        47.695881128311157        33.111542463302612        6.9400000000000004     
 Li   71.449887752532959        35.516172647476196        30.613505840301514        6.9400000000000004     
 Li   31.115591526031494        68.571686744689941        9.9012263119220734        6.9400000000000004     
 Li   20.777298510074615        36.636269092559814        48.420003056526184        6.9400000000000004     
 Li   27.783659100532532        2.8508886694908142        8.6271062493324280        6.9400000000000004     
 Li   68.388020992279053        43.063607811927795        1.0625035502016544        6.9400000000000004     
 Li   89.696323871612549        53.374797105789185        34.845787286758423        6.9400000000000004     
 Li   51.140135526657104        89.432585239410400        9.3264125287532806        6.9400000000000004     
 Li   89.148318767547607        38.720768690109253        42.565703392028809        6.9400000000000004     
 Li   14.459861814975739        71.814846992492676        23.168526589870453        6.9400000000000004     
 Li   30.730313062667847        30.781671404838562        14.942833781242371        6.9400000000000004     
 Li   24.342121183872223        77.823197841644287        44.507089257240295        6.9400000000000004     
 Li   69.505119323730469        79.375261068344116        1.7697818577289581        6.9400000000000004     
 Li   33.543050289154053        12.098520249128342        48.091566562652588        6.9400000000000004     
 Li   78.214192390441895        17.113859951496124        12.054897099733353        6.9400000000000004     
 Li   58.263009786605835        37.177625298500061        14.490400254726410        6.9400000000000004     
 Li   76.850998401641846        17.984668910503387        31.861460208892822        6.9400000000000004     
 Li   40.817114710807800        42.713400721549988        46.571516990661621        6.9400000000000004     
 Li   68.183040618896484        66.490930318832397        30.270349979400635        6.9400000000000004     
 Li   3.8352549076080322        15.893578529357910        8.0366313457489014        6.9400000000000004     
 Li   43.836453557014465        24.057312309741974        31.931006908416748        6.9400000000000004     
 Li   37.089303135871887        37.129262089729309        49.961799383163452        6.9400000000000004     
 Li   77.769023180007935        90.756714344024658        43.704909086227417        6.9400000000000004     
 Li   71.836924552917480        92.997115850448608        27.099806070327759        6.9400000000000004     
 Li  0.18197823083028197        79.309189319610596        36.607816815376282        6.9400000000000004     
 Li   78.675705194473267        98.973578214645386        3.6267410963773727        6.9400000000000004     
 Li   27.067682147026062        77.261966466903687        31.160727143287659        6.9400000000000004     
 Li   76.806992292404175        62.137871980667114        39.247322082519531        6.9400000000000004     
 Li   18.858702480792999        54.123055934906006        41.060480475425720        6.9400000000000004     
 Li   10.010052472352982        73.352676630020142        33.018365502357483        6.9400000000000004     
 Li   21.178199350833893        21.000801026821136        24.112392961978912        6.9400000000000004     
 Li   90.740561485290527        94.805401563644409        37.613376975059509        6.9400000000000004     
 Li   78.806692361831665        81.872850656509399        43.645906448364258        6.9400000000000004     
 Li   53.318786621093750        4.3770160526037216        23.270139098167419        6.9400000000000004     
 Li   19.472590088844299        47.165092825889587        26.540496945381165        6.9400000000000004     
 Li   28.707188367843628        39.213842153549194        2.0063778385519981        6.9400000000000004     
 Li   83.784389495849609        77.972656488418579        30.423924326896667        6.9400000000000004     
 Li   40.664574503898621        91.970521211624146        43.857041001319885        6.9400000000000004     
 Li   42.601820826530457        77.457690238952637        47.592884302139282        6.9400000000000004     
 Li   43.795064091682434        20.859010517597198        21.073420345783234        6.9400000000000004     
 Li   21.428243815898895        88.851177692413330        43.276152014732361        6.9400000000000004     
 Li   99.513930082321167        2.7760615572333336        16.091734170913696        6.9400000000000004     
 Li   39.621546864509583        44.280123710632324        30.299448966979980        6.9400000000000004     
 Li   85.165125131607056        52.993029356002808        18.285220861434937        6.9400000000000004     
 Li   93.640202283859253        81.192582845687866        5.4896067827939987        6.9400000000000004     
 Li   25.115644931793213        50.533944368362427        20.239385962486267        6.9400000000000004     
 Li   43.245518207550049        33.056607842445374        21.955229341983795        6.9400000000000004     
 Li   61.021703481674194        49.638971686363220        29.208317399024963        6.9400000000000004     
 Li   79.591232538223267        60.383802652359009        30.319622159004211        6.9400000000000004     
 Li   43.125933408737183        81.183260679244995        3.5089928656816483        6.9400000000000004     
 Li   42.563772201538086        82.280749082565308        23.057068884372711        6.9400000000000004     
 Li   54.415810108184814        29.585781693458557        19.501104950904846        6.9400000000000004     
 Li   60.363566875457764        98.737055063247681        9.5209367573261261        6.9400000000000004     
 Li   82.813769578933716        52.011501789093018        5.5669583380222321        6.9400000000000004     
 Li   67.523688077926636        30.075407028198242        26.837930083274841        6.9400000000000004     
 Li   3.9769418537616730        44.818076491355896        23.643390834331512        6.9400000000000004     
 Li   60.772210359573364        32.975873351097107        35.630497336387634        6.9400000000000004     
 Li   11.074826121330261        23.711873590946198        22.488063573837280        6.9400000000000004     
 Li   72.217547893524170        34.115311503410339        35.237523913383484        6.9400000000000004     
 Li   88.674455881118774        18.551994860172272        49.033629894256592        6.9400000000000004     
 Li   80.893409252166748        77.811783552169800        13.150341808795929        6.9400000000000004     
 Li   11.994950473308563        80.991160869598389        44.716772437095642        6.9400000000000004     
 Li   44.305518269538879        77.942466735839844        33.209165930747986        6.9400000000000004     
 Li   8.3472900092601776        44.729754328727722        35.995015501976013        6.9400000000000004     
 Li   20.838661491870880        44.369536638259888        34.163120388984680        6.9400000000000004     
 Li   10.574151575565338        4.9693308770656586        46.454888582229614        6.9400000000000004     
 Li   27.273720502853394        71.174967288970947        1.8340928480029106        6.9400000000000004     
 Li   99.247932434082031        39.055415987968445        24.396468698978424        6.9400000000000004     
 Li   13.039842247962952        19.263184070587158        36.131784319877625        6.9400000000000004     
 Li   20.786410570144653        66.461402177810669        6.8785235285758972        6.9400000000000004     
 Li   41.052439808845520        78.126329183578491        14.350450038909912        6.9400000000000004     
 Li   87.476235628128052        20.012569427490234        39.264494180679321        6.9400000000000004     
 Li   53.286576271057129        61.130738258361816        39.119198918342590        6.9400000000000004     
 Li   14.701771736145020        49.461555480957031        37.895241379737854        6.9400000000000004     
 Li   32.512596249580383        44.886317849159241        42.131221294403076        6.9400000000000004     
 Li   59.154665470123291        6.3617594540119171        42.592915892601013        6.9400000000000004     
 Li   45.878300070762634        31.421127915382385        14.191085100173950        6.9400000000000004     
 Li   54.931557178497314        69.134825468063354        33.701989054679871        6.9400000000000004     
